 Monthly Averaged Head Values from MODFLOW

