 Monthly Averaged GW/SW Rates for MODFLOW

