 Progress of SWAT-MODFLOW simulation

 swatmf_link.txt:    file flags have been read
 swatmf_link.txt:    MODFLOW is active
 swatmf_link.txt:    Observation cell file needed
 swatmf_link.txt:    output flags have been read
 swatmf_link.txt:    output control has been read

