 Monthly Averaged Recharge Values for MODFLOW

