 Yearly Averaged Recharge Values for MODFLOW

