 MODFLOW River Stage (L) (for each River Cell)
 --Calculated from SWAT Channel Depth--
