 Yearly Averaged Head Values from MODFLOW

