 MODFLOW Recharge (L3/T) (for each cell)
 --Calculated from SWAT HRU recharge--
